Version 4
SHEET 1 880 680
WIRE -240 -320 -480 -320
WIRE -80 -320 -176 -320
WIRE -48 -320 -80 -320
WIRE -528 -304 -800 -304
WIRE -48 -224 -48 -320
WIRE -528 -208 -528 -304
WIRE -480 -208 -480 -320
WIRE -800 -192 -800 -304
WIRE -800 -32 -800 -112
WIRE -656 -32 -800 -32
WIRE -528 -32 -528 -128
WIRE -528 -32 -656 -32
WIRE -480 -32 -480 -128
WIRE -208 -32 -480 -32
WIRE -48 -32 -48 -144
WIRE -48 -32 -208 -32
WIRE -208 16 -208 -32
WIRE -656 32 -656 -32
FLAG -656 32 0
FLAG -208 16 0
FLAG -80 -320 out
SYMBOL voltage -800 -208 R0
WINDOW 123 0 0 Left 2
WINDOW 39 24 124 Left 2
SYMATTR InstName V1
SYMATTR Value SINE(0 325 50 0 0 0 10)
SYMATTR SpiceLine Rser=0.1
SYMBOL diode -240 -304 R270
WINDOW 0 32 32 VTop 2
WINDOW 3 0 32 VBottom 2
SYMATTR InstName D1
SYMATTR Value 1N914
SYMBOL res -64 -240 R0
SYMATTR InstName R2
SYMATTR Value 100
SYMBOL ind2 -512 -224 M0
SYMATTR InstName L1
SYMATTR Value 711m
SYMATTR Type ind
SYMBOL ind2 -496 -224 R0
SYMATTR InstName L2
SYMATTR Value 1m
SYMATTR Type ind
TEXT -720 -384 Left 2 !.tran 0 100m 0 10u
TEXT -416 -384 Left 2 !K2 L1 L2 1
