Version 4
SHEET 1 880 680
WIRE 64 0 -48 0
WIRE 176 0 64 0
WIRE 176 80 176 0
WIRE -48 96 -48 0
WIRE 176 192 176 144
WIRE -48 224 -48 176
FLAG -48 224 0
FLAG 176 192 0
FLAG 64 0 v_diode_zener
SYMBOL voltage -48 80 R0
WINDOW 123 0 0 Left 2
WINDOW 39 24 124 Left 2
SYMATTR InstName V1
SYMATTR Value 1
SYMATTR SpiceLine Rser=0
SYMBOL zener 192 144 R180
WINDOW 0 24 64 Left 2
WINDOW 3 24 0 Left 2
SYMATTR InstName D1
SYMATTR Value 1N750
SYMATTR Description Diode
SYMATTR Type diode
TEXT 184 -72 Left 2 !.dc V1 -10 0 0.5m temp -20 60 40
